
##########                                Name:               2nnq
##########                DOCK_Rotatable_Bonds:                   8
##########                    Molecular_Weight:             473.551
##########                       Formal_Charge:             -1.0011
##########                            HA_RMSDs:              0.5981
##########                            HA_RMSDh:              0.5981
##########                            HA_RMSDm:              0.5472
##########                        Cluster_Size:                  91
##########                          Grid_Score:          -56.656948
##########                     Grid_vdw_energy:          -49.143288
##########                      Grid_es_energy:           -7.513660
##########           Internal_energy_repulsive:           26.777113

@<TRIPOS>MOLECULE
2nnq
 61 65 1 0 0
SMALL
AMBER ff14SB


@<TRIPOS>ATOM
      1 C1          2.5680   10.5557   15.6037 C.ar    1  T4B        -0.1280
      2 C2          6.2277   10.2087   16.8337 C.ar    1  T4B        -0.0310
      3 C3          6.5230    8.8119   16.9305 C.ar    1  T4B        -0.1410
      4 C7          5.1144   11.7812   15.1768 C.ar    1  T4B        -0.1200
      5 C8          3.9618   12.2604   14.4985 C.ar    1  T4B        -0.1330
      6 C9          7.1455    6.0176   17.1000 C.3     1  T4B         0.0044
      7 C10         7.3968    6.1249   15.5989 C.2     1  T4B         0.8876
      8 C11         7.6387    8.3529   17.7139 C.ar    1  T4B         0.1591
      9 C12         8.4586    9.3027   18.3935 C.ar    1  T4B        -0.1760
     10 C13         8.1733   10.6954   18.2926 C.ar    1  T4B        -0.1230
     11 C14         7.0613   11.1491   17.5152 C.ar    1  T4B        -0.1650
     12 C15         3.7465    6.6847   14.7280 C.3     1  T4B        -0.1161
     13 C16         2.6988    5.5397   18.3382 C.ar    1  T4B        -0.0100
     14 C19         3.1942    6.9499   18.1147 C.ar    1  T4B        -0.1973
     15 C20         3.0932    7.6797   16.9580 C.ar    1  T4B        -0.0506
     16 C21         2.5812    7.1421   15.6134 C.3     1  T4B        -0.0141
     17 C22         3.1283    3.1823   18.9418 C.ar    1  T4B        -0.1435
     18 C24         4.0427    6.4668   22.7191 C.ar    1  T4B        -0.1420
     19 C27         4.3115    7.5564   20.5152 C.ar    1  T4B        -0.0935
     20 C30         1.2973    5.2361   18.2125 C.ar    1  T4B        -0.1135
     21 C           2.6915   11.6518   14.7107 C.ar    1  T4B        -0.1380
     22 C4          5.5120    8.1797   20.9787 C.ar    1  T4B        -0.1070
     23 C5          3.7206   10.0585   16.2931 C.ar    1  T4B         0.0348
     24 C6          5.0102   10.6802   16.0818 C.ar    1  T4B         0.0140
     25 O           7.7683    7.1881   15.1062 O.co2   1  T4B        -0.8353
     26 O1          7.1996    5.0807   14.8205 O.co2   1  T4B        -0.8353
     27 O2          7.9405    7.0019   17.8068 O.3     1  T4B        -0.3289
     28 C17         3.6095    4.4977   18.7039 C.ar    1  T4B        -0.1135
     29 N           3.6065    8.9489   17.1910 N.ar    1  T4B         0.1573
     30 N1          4.0539    9.0002   18.5479 N.ar    1  T4B        -0.4918
     31 C18         3.8467    7.8538   19.1287 C.ar    1  T4B         0.3588
     32 C23         3.5757    6.6955   21.3945 C.ar    1  T4B        -0.1070
     33 C25         5.2399    7.0921   23.1714 C.ar    1  T4B        -0.1390
     34 C26         5.9751    7.9478   22.3067 C.ar    1  T4B        -0.1420
     35 C28         1.7415    2.8950   18.8122 C.ar    1  T4B        -0.1420
     36 C29         0.8270    3.9200   18.4470 C.ar    1  T4B        -0.1435
     37 H1          1.6039   10.0960   15.7636 H       1  T4B         0.1390
     38 H3          5.9031    8.0963   16.4111 H       1  T4B         0.1910
     39 H7          6.0723   12.2505   15.0081 H       1  T4B         0.1420
     40 H8          4.0494   13.0930   13.8162 H       1  T4B         0.1250
     41 H92         6.0892    6.1939   17.3027 H       1  T4B         0.0452
     42 H93         7.4179    5.0192   17.4421 H       1  T4B         0.0452
     43 H12         9.2969    8.9656   18.9853 H       1  T4B         0.1330
     44 H13         8.7992   11.4111   18.8050 H       1  T4B         0.1120
     45 H14         6.8508   12.2060   17.4429 H       1  T4B         0.1170
     46 H212        2.0312    7.9308   15.1000 H       1  T4B         0.0472
     47 H213        1.9148    6.2987   15.7940 H       1  T4B         0.0472
     48 H22         3.8171    2.3989   19.2215 H       1  T4B         0.1255
     49 H24         3.4889    5.8185   23.3821 H       1  T4B         0.1215
     50 H30         0.6011    6.0149   17.9383 H       1  T4B         0.1660
     51 H           1.8212   12.0249   14.1914 H       1  T4B         0.1250
     52 H4          6.0699    8.8286   20.3201 H       1  T4B         0.1475
     53 H17         4.6638    4.7117   18.7992 H       1  T4B         0.1660
     54 H23         2.6679    6.2212   21.0520 H       1  T4B         0.1475
     55 H25         5.5911    6.9150   24.1773 H       1  T4B         0.1170
     56 H26         6.8815    8.4208   22.6548 H       1  T4B         0.1215
     57 H28         1.3813    1.8929   18.9923 H       1  T4B         0.1140
     58 H29        -0.2249    3.6961   18.3483 H       1  T4B         0.1255
     59 H151        3.3583    6.3083   13.7815 H       1  T4B         0.0610
     60 H152        4.2984    5.8930   15.2346 H       1  T4B         0.0610
     61 H153        4.4114    7.5273   14.5385 H       1  T4B         0.0610
@<TRIPOS>BOND
     1     1    21   ar
     2     1    23   ar
     3     2     3   ar
     4     2    11   ar
     5     2    24    1
     6     3     8   ar
     7     4     5   ar
     8     4    24   ar
     9     5    21   ar
    10     6     7    1
    11     6    27    1
    12     7    25    2
    13     7    26    2
    14     8     9   ar
    15     8    27    1
    16     9    10   ar
    17    10    11   ar
    18    12    16    1
    19    13    14    1
    20    13    20   ar
    21    13    28   ar
    22    14    15   ar
    23    14    31   ar
    24    15    16    1
    25    15    29   ar
    26    17    28   ar
    27    17    35   ar
    28    18    32   ar
    29    18    33   ar
    30    19    22   ar
    31    19    31    1
    32    19    32   ar
    33    20    36   ar
    34    22    34   ar
    35    23    24   ar
    36    23    29    1
    37    29    30   ar
    38    30    31   ar
    39    33    34   ar
    40    35    36   ar
    41    37     1    1
    42    38     3    1
    43    39     4    1
    44    40     5    1
    45    41     6    1
    46    42     6    1
    47    43     9    1
    48    44    10    1
    49    45    11    1
    50    46    16    1
    51    47    16    1
    52    48    17    1
    53    49    18    1
    54    50    20    1
    55    51    21    1
    56    52    22    1
    57    53    28    1
    58    54    32    1
    59    55    33    1
    60    56    34    1
    61    57    35    1
    62    58    36    1
    63    59    12    1
    64    60    12    1
    65    61    12    1
@<TRIPOS>SUBSTRUCTURE
     1 T4B         1 TEMP              0 ****  ****    0 ROOT


##########                                Name:               2nnq
##########                DOCK_Rotatable_Bonds:                   8
##########                    Molecular_Weight:          473.550903
##########                       Formal_Charge:           -1.001101
##########                            HA_RMSDs:              2.8793
##########                            HA_RMSDh:              2.5405
##########                            HA_RMSDm:              2.3950
##########                        Cluster_Size:                   9
##########                          Grid_Score:          -41.585461
##########                     Grid_vdw_energy:          -36.735958
##########                      Grid_es_energy:           -4.849504
##########           Internal_energy_repulsive:           23.020405

@<TRIPOS>MOLECULE
2nnq
 61 65 1 0 0
SMALL
AMBER ff14SB


@<TRIPOS>ATOM
      1 C1          2.5006   11.2449   17.1987 C.ar    1  T4B        -0.1280
      2 C2          5.7459    9.4117   16.1336 C.ar    1  T4B        -0.0310
      3 C3          6.6825    9.2605   17.2048 C.ar    1  T4B        -0.1410
      4 C7          4.7389   11.6480   15.4680 C.ar    1  T4B        -0.1200
      5 C8          3.7279   12.6397   15.5806 C.ar    1  T4B        -0.1330
      6 C9          8.3470    8.5739   19.4781 C.3     1  T4B         0.0044
      7 C10         8.5082   10.0831   19.6343 C.2     1  T4B         0.8876
      8 C11         7.7810    8.3389   17.0910 C.ar    1  T4B         0.1591
      9 C12         7.9303    7.5666   15.9004 C.ar    1  T4B        -0.1760
     10 C13         6.9946    7.7076   14.8347 C.ar    1  T4B        -0.1230
     11 C14         5.9046    8.6272   14.9491 C.ar    1  T4B        -0.1650
     12 C15         3.4439    6.2721   15.4616 C.3     1  T4B        -0.1161
     13 C16         2.5938    5.4658   18.5342 C.ar    1  T4B        -0.0100
     14 C19         3.0354    6.9108   18.5055 C.ar    1  T4B        -0.1973
     15 C20         2.9583    7.7697   17.4393 C.ar    1  T4B        -0.0506
     16 C21         2.5375    7.3781   16.0150 C.3     1  T4B        -0.0141
     17 C22         0.8332    3.7519   18.2712 C.ar    1  T4B        -0.1435
     18 C24         5.6541    7.1006   22.8536 C.ar    1  T4B        -0.1420
     19 C27         4.0055    7.2677   21.0176 C.ar    1  T4B        -0.0935
     20 C30         3.5490    4.4219   18.7987 C.ar    1  T4B        -0.1135
     21 C           2.6122   12.4413   16.4436 C.ar    1  T4B        -0.1380
     22 C4          3.0835    6.4900   21.7854 C.ar    1  T4B        -0.1070
     23 C5          3.5094   10.2338   17.0943 C.ar    1  T4B         0.0348
     24 C6          4.6459   10.4376   16.2218 C.ar    1  T4B         0.0140
     25 O           8.5554   10.8082   18.6428 O.co2   1  T4B        -0.8353
     26 O1          8.6149   10.6145   20.8349 O.co2   1  T4B        -0.8353
     27 O2          8.6894    8.1766   18.1270 O.3     1  T4B        -0.3289
     28 C17         1.2308    5.1159   18.2720 C.ar    1  T4B        -0.1135
     29 N           3.4017    9.0208   17.8476 N.ar    1  T4B         0.1573
     30 N1          3.7795    8.9262   19.2233 N.ar    1  T4B        -0.4918
     31 C18         3.5961    7.7111   19.6528 C.ar    1  T4B         0.3588
     32 C23         5.2976    7.5721   21.5591 C.ar    1  T4B        -0.1070
     33 C25         4.7285    6.3268   23.6108 C.ar    1  T4B        -0.1390
     34 C26         3.4458    6.0193   23.0812 C.ar    1  T4B        -0.1420
     35 C28         1.7864    2.7301   18.5359 C.ar    1  T4B        -0.1420
     36 C29         3.1423    3.0643   18.8005 C.ar    1  T4B        -0.1435
     37 H1          1.6541   11.0967   17.8528 H       1  T4B         0.1390
     38 H3          6.5637    9.8432   18.1062 H       1  T4B         0.1910
     39 H7          5.5804   11.8093   14.8105 H       1  T4B         0.1420
     40 H8          3.8060   13.5517   15.0072 H       1  T4B         0.1250
     41 H92         9.0063    8.0657   20.1817 H       1  T4B         0.0452
     42 H93         7.3135    8.2968   19.6858 H       1  T4B         0.0452
     43 H12         8.7538    6.8741   15.8067 H       1  T4B         0.1330
     44 H13         7.1090    7.1180   13.9371 H       1  T4B         0.1120
     45 H14         5.1992    8.7291   14.1377 H       1  T4B         0.1170
     46 H212        2.6072    8.2532   15.3689 H       1  T4B         0.0472
     47 H213        1.5067    7.0238   16.0296 H       1  T4B         0.0472
     48 H22        -0.1950    3.4904   18.0690 H       1  T4B         0.1255
     49 H24         6.6273    7.3296   23.2621 H       1  T4B         0.1215
     50 H30         4.5803    4.6744   18.9966 H       1  T4B         0.1660
     51 H           1.8500   13.2024   16.5233 H       1  T4B         0.1250
     52 H4          2.1089    6.2582   21.3820 H       1  T4B         0.1475
     53 H17         0.5038    5.8897   18.0746 H       1  T4B         0.1660
     54 H23         5.9997    8.1589   20.9853 H       1  T4B         0.1475
     55 H25         5.0030    5.9716   24.5932 H       1  T4B         0.1170
     56 H26         2.7480    5.4311   23.6587 H       1  T4B         0.1215
     57 H28         1.4783    1.6950   18.5360 H       1  T4B         0.1140
     58 H29         3.8618    2.2846   19.0027 H       1  T4B         0.1255
     59 H151        3.1258    6.0121   14.4520 H       1  T4B         0.0610
     60 H152        3.3755    5.3925   16.1016 H       1  T4B         0.0610
     61 H153        4.4749    6.6251   15.4381 H       1  T4B         0.0610
@<TRIPOS>BOND
     1     1    21   ar
     2     1    23   ar
     3     2     3   ar
     4     2    11   ar
     5     2    24    1
     6     3     8   ar
     7     4     5   ar
     8     4    24   ar
     9     5    21   ar
    10     6     7    1
    11     6    27    1
    12     7    25    2
    13     7    26    2
    14     8     9   ar
    15     8    27    1
    16     9    10   ar
    17    10    11   ar
    18    12    16    1
    19    13    14    1
    20    13    20   ar
    21    13    28   ar
    22    14    15   ar
    23    14    31   ar
    24    15    16    1
    25    15    29   ar
    26    17    28   ar
    27    17    35   ar
    28    18    32   ar
    29    18    33   ar
    30    19    22   ar
    31    19    31    1
    32    19    32   ar
    33    20    36   ar
    34    22    34   ar
    35    23    24   ar
    36    23    29    1
    37    29    30   ar
    38    30    31   ar
    39    33    34   ar
    40    35    36   ar
    41    37     1    1
    42    38     3    1
    43    39     4    1
    44    40     5    1
    45    41     6    1
    46    42     6    1
    47    43     9    1
    48    44    10    1
    49    45    11    1
    50    46    16    1
    51    47    16    1
    52    48    17    1
    53    49    18    1
    54    50    20    1
    55    51    21    1
    56    52    22    1
    57    53    28    1
    58    54    32    1
    59    55    33    1
    60    56    34    1
    61    57    35    1
    62    58    36    1
    63    59    12    1
    64    60    12    1
    65    61    12    1
@<TRIPOS>SUBSTRUCTURE
     1 T4B         1 TEMP              0 ****  ****    0 ROOT

