@<TRIPOS>MOLECULE
2nnq
61 65 1 0 0
SMALL
AMBER ff14SB


@<TRIPOS>ATOM
      1 C1          2.3600   10.6210   15.5130 C.ar      1 T4B   -0.1280
      2 C2          6.0970   10.0740   16.3860 C.ar      1 T4B   -0.0310
      3 C3          6.4370    8.6900   16.2580 C.ar      1 T4B   -0.1410
      4 C7          4.9160   11.7070   14.8380 C.ar      1 T4B   -0.1200
      5 C8          3.7310   12.2490   14.2720 C.ar      1 T4B   -0.1330
      6 C9          6.9200    5.7870   16.8350 C.3       1 T4B    0.0044
      7 C10         6.7200    5.2070   15.4380 C.2       1 T4B    0.8876
      8 C11         7.5930    8.1560   16.9270 C.ar      1 T4B    0.1591
      9 C12         8.4080    9.0190   17.7190 C.ar      1 T4B   -0.1760
     10 C13         8.0780   10.4000   17.8420 C.ar      1 T4B   -0.1230
     11 C14         6.9260   10.9280   17.1780 C.ar      1 T4B   -0.1650
     12 C15         3.3590    6.9490   14.4400 C.3       1 T4B   -0.1161
     13 C16         2.5280    5.5810   18.2210 C.ar      1 T4B   -0.0100
     14 C19         3.0490    6.9750   17.9580 C.ar      1 T4B   -0.1973
     15 C20         2.8930    7.7040   16.8070 C.ar      1 T4B   -0.0506
     16 C21         2.2770    7.1780   15.5020 C.3       1 T4B   -0.0141
     17 C22         2.9070    3.2440   18.9290 C.ar      1 T4B   -0.1435
     18 C24         4.1060    6.6740   22.5750 C.ar      1 T4B   -0.1420
     19 C27         4.3410    7.5550   20.2760 C.ar      1 T4B   -0.0935
     20 C30         1.1270    5.2900   18.0640 C.ar      1 T4B   -0.1135
     21 C           2.4560   11.7100   14.6080 C.ar      1 T4B   -0.1380
     22 C4          5.6860    7.9410   20.5700 C.ar      1 T4B   -0.1070
     23 C5          3.5450   10.0610   16.0900 C.ar      1 T4B    0.0348
     24 C6          4.8400   10.6120   15.7530 C.ar      1 T4B    0.0140
     25 O           7.2750    5.7190   14.4680 O.co2     1 T4B   -0.8353
     26 O1          5.9360    4.1630   15.2630 O.co2     1 T4B   -0.8353
     27 O2          7.9380    6.8180   16.8020 O.3       1 T4B   -0.3289
     28 C17         3.4130    4.5430   18.6550 C.ar      1 T4B   -0.1135
     29 N           3.4580    8.9580   16.9990 N.ar      1 T4B    0.1573
     30 N1          3.9960    9.0000   18.3230 N.ar      1 T4B   -0.4918
     31 C18         3.7940    7.8620   18.9220 C.ar      1 T4B    0.3588
     32 C23         3.5500    6.9180   21.2880 C.ar      1 T4B   -0.1070
     33 C25         5.4470    7.0620   22.8580 C.ar      1 T4B   -0.1390
     34 C26         6.2380    7.6950   21.8610 C.ar      1 T4B   -0.1420
     35 C28         1.5210    2.9690   18.7680 C.ar      1 T4B   -0.1420
     36 C29         0.6320    3.9900   18.3350 C.ar      1 T4B   -0.1435
     37 H1          1.3923   10.2142   15.7668 H         1 T4B    0.1390
     38 H3          5.8205    8.0408   15.6540 H         1 T4B    0.1910
     39 H7          5.8772   12.1238   14.5759 H         1 T4B    0.1420
     40 H8          3.7974   13.0766   13.5812 H         1 T4B    0.1250
     41 H92         5.9817    6.2174   17.1849 H         1 T4B    0.0452
     42 H93         7.2302    4.9938   17.5152 H         1 T4B    0.0452
     43 H12         9.2764    8.6250   18.2261 H         1 T4B    0.1330
     44 H13         8.7001   11.0505   18.4389 H         1 T4B    0.1120
     45 H14         6.6817   11.9755   17.2754 H         1 T4B    0.1170
     46 H212        1.5581    7.9068   15.1276 H         1 T4B    0.0472
     47 H213        1.7640    6.2370   15.7007 H         1 T4B    0.0472
     48 H22         3.5763    2.4638   19.2602 H         1 T4B    0.1255
     49 H24         3.5107    6.1942   23.3378 H         1 T4B    0.1215
     50 H30         0.4500    6.0659   17.7382 H         1 T4B    0.1660
     51 H           1.5612   12.1306   14.1735 H         1 T4B    0.1250
     52 H4          6.2860    8.4208   19.8110 H         1 T4B    0.1475
     53 H17         4.4667    4.7476   18.7743 H         1 T4B    0.1660
     54 H23         2.5332    6.6236   21.0738 H         1 T4B    0.1475
     55 H25         5.8652    6.8741   23.8359 H         1 T4B    0.1170
     56 H26         7.2538    7.9886   22.0809 H         1 T4B    0.1215
     57 H28         1.1420    1.9793   18.9758 H         1 T4B    0.1140
     58 H29        -0.4194    3.7754   18.2127 H         1 T4B    0.1255
     59 H151        2.8979    6.5766   13.5252 H         1 T4B    0.0610
     60 H152        4.0792    6.2179   14.8072 H         1 T4B    0.0610
     61 H153        3.8695    7.8895   14.2327 H         1 T4B    0.0610
@<TRIPOS>BOND
     1    1   21 ar
     2    1   23 ar
     3    2    3 ar
     4    2   11 ar
     5    2   24 1
     6    3    8 ar
     7    4    5 ar
     8    4   24 ar
     9    5   21 ar
    10    6    7 1
    11    6   27 1
    12    7   25 2
    13    7   26 2
    14    8    9 ar
    15    8   27 1
    16    9   10 ar
    17   10   11 ar
    18   12   16 1
    19   13   14 1
    20   13   20 ar
    21   13   28 ar
    22   14   15 ar
    23   14   31 ar
    24   15   16 1
    25   15   29 ar
    26   17   28 ar
    27   17   35 ar
    28   18   32 ar
    29   18   33 ar
    30   19   22 ar
    31   19   31 1
    32   19   32 ar
    33   20   36 ar
    34   22   34 ar
    35   23   24 ar
    36   23   29 1
    37   29   30 ar
    38   30   31 ar
    39   33   34 ar
    40   35   36 ar
    41   37    1 1
    42   38    3 1
    43   39    4 1
    44   40    5 1
    45   41    6 1
    46   42    6 1
    47   43    9 1
    48   44   10 1
    49   45   11 1
    50   46   16 1
    51   47   16 1
    52   48   17 1
    53   49   18 1
    54   50   20 1
    55   51   21 1
    56   52   22 1
    57   53   28 1
    58   54   32 1
    59   55   33 1
    60   56   34 1
    61   57   35 1
    62   58   36 1
    63   59   12 1
    64   60   12 1
    65   61   12 1
@<TRIPOS>SUBSTRUCTURE
     1 T4B     1 RESIDUE           4 A     T4B     0 ROOT
