
##########                                Name:               2nnq
##########                DOCK_Rotatable_Bonds:                   8
##########                    Molecular_Weight:             473.551
##########                       Formal_Charge:             -1.0011
##########                            HA_RMSDs:              0.1367
##########                            HA_RMSDh:              0.1367
##########                            HA_RMSDm:              0.1367
##########                          Grid_Score:          -55.357105
##########                     Grid_vdw_energy:          -45.041122
##########                      Grid_es_energy:          -10.315982
##########           Internal_energy_repulsive:           15.047776

@<TRIPOS>MOLECULE
2nnq
 61 65 1 0 0
SMALL
AMBER ff14SB


@<TRIPOS>ATOM
      1 C1          2.4333   10.6175   15.5469 C.ar    1  T4B        -0.1280
      2 C2          6.1786   10.1172   16.4126 C.ar    1  T4B        -0.0310
      3 C3          6.5224    8.7323   16.3063 C.ar    1  T4B        -0.1410
      4 C7          4.9743   11.7350   14.8665 C.ar    1  T4B        -0.1200
      5 C8          3.7815   12.2621   14.3028 C.ar    1  T4B        -0.1330
      6 C9          7.0215    5.8418   16.9328 C.3     1  T4B         0.0044
      7 C10         6.8101    5.2338   15.5495 C.2     1  T4B         0.8876
      8 C11         7.6865    8.2145   16.9738 C.ar    1  T4B         0.1591
      9 C12         8.5058    9.0944   17.7424 C.ar    1  T4B        -0.1760
     10 C13         8.1720   10.4762   17.8437 C.ar    1  T4B        -0.1230
     11 C14         7.0119   10.9882   17.1812 C.ar    1  T4B        -0.1650
     12 C15         3.5322    6.9343   14.4811 C.3     1  T4B        -0.1161
     13 C16         2.6893    5.5725   18.2474 C.ar    1  T4B        -0.0100
     14 C19         3.1811    6.9778   17.9882 C.ar    1  T4B        -0.1973
     15 C20         3.0208    7.7018   16.8347 C.ar    1  T4B        -0.0506
     16 C21         2.4310    7.1605   15.5238 C.3     1  T4B        -0.0141
     17 C22         3.1285    3.2271   18.8898 C.ar    1  T4B        -0.1435
     18 C24         4.2065    6.6739   22.6052 C.ar    1  T4B        -0.1420
     19 C27         4.4345    7.5897   20.3192 C.ar    1  T4B        -0.0935
     20 C30         1.2860    5.2671   18.1507 C.ar    1  T4B        -0.1135
     21 C           2.5140   11.7073   14.6414 C.ar    1  T4B        -0.1380
     22 C4          5.7531    8.0404   20.6399 C.ar    1  T4B        -0.1070
     23 C5          3.6263   10.0724   16.1217 C.ar    1  T4B         0.0348
     24 C6          4.9137   10.6394   15.7820 C.ar    1  T4B         0.0140
     25 O           7.3740    5.7131   14.5680 O.co2   1  T4B        -0.8353
     26 O1          6.0067    4.2008   15.3985 O.co2   1  T4B        -0.8353
     27 O2          8.0352    6.8756   16.8696 O.3     1  T4B        -0.3289
     28 C17         3.6059    4.5375   18.6184 C.ar    1  T4B        -0.1135
     29 N           3.5549    8.9687   17.0311 N.ar    1  T4B         0.1573
     30 N1          4.0775    9.0243   18.3607 N.ar    1  T4B        -0.4918
     31 C18         3.8952    7.8826   18.9590 C.ar    1  T4B         0.3588
     32 C23         3.6603    6.9028   21.3113 C.ar    1  T4B        -0.1070
     33 C25         5.5211    7.1265   22.9149 C.ar    1  T4B        -0.1390
     34 C26         6.2953    7.8092   21.9377 C.ar    1  T4B        -0.1420
     35 C28         1.7398    2.9379   18.7887 C.ar    1  T4B        -0.1420
     36 C29         0.8195    3.9559   18.4185 C.ar    1  T4B        -0.1435
     37 H1          1.4713   10.1987   15.8027 H       1  T4B         0.1390
     38 H3          5.9026    8.0702   15.7199 H       1  T4B         0.1910
     39 H7          5.9297   12.1636   14.6024 H       1  T4B         0.1420
     40 H8          3.8363   13.0902   13.6116 H       1  T4B         0.1250
     41 H92         6.0850    6.2755   17.2835 H       1  T4B         0.0452
     42 H93         7.3414    5.0632   17.6253 H       1  T4B         0.0452
     43 H12         9.3804    8.7126   18.2483 H       1  T4B         0.1330
     44 H13         8.7973   11.1395   18.4228 H       1  T4B         0.1120
     45 H14         6.7647   12.0364   17.2621 H       1  T4B         0.1170
     46 H212        1.7114    7.8796   15.1325 H       1  T4B         0.0472
     47 H213        1.9239    6.2161   15.7212 H       1  T4B         0.0472
     48 H22         3.8218    2.4491   19.1735 H       1  T4B         0.1255
     49 H24         3.6238    6.1565   23.3531 H       1  T4B         0.1215
     50 H30         0.5854    6.0406   17.8727 H       1  T4B         0.1660
     51 H           1.6132   12.1167   14.2086 H       1  T4B         0.1250
     52 H4          6.3404    8.5579   19.8959 H       1  T4B         0.1475
     53 H17         4.6616    4.7529   18.6921 H       1  T4B         0.1660
     54 H23         2.6635    6.5594   21.0769 H       1  T4B         0.1475
     55 H25         5.9320    6.9498   23.8980 H       1  T4B         0.1170
     56 H26         7.2910    8.1517   22.1778 H       1  T4B         0.1215
     57 H28         1.3825    1.9397   18.9942 H       1  T4B         0.1140
     58 H29        -0.2340    3.7306   18.3415 H       1  T4B         0.1255
     59 H151        3.0896    6.5509   13.5618 H       1  T4B         0.0610
     60 H152        4.2533    6.2129   14.8653 H       1  T4B         0.0610
     61 H153        4.0370    7.8782   14.2751 H       1  T4B         0.0610
@<TRIPOS>BOND
     1     1    21   ar
     2     1    23   ar
     3     2     3   ar
     4     2    11   ar
     5     2    24    1
     6     3     8   ar
     7     4     5   ar
     8     4    24   ar
     9     5    21   ar
    10     6     7    1
    11     6    27    1
    12     7    25    2
    13     7    26    2
    14     8     9   ar
    15     8    27    1
    16     9    10   ar
    17    10    11   ar
    18    12    16    1
    19    13    14    1
    20    13    20   ar
    21    13    28   ar
    22    14    15   ar
    23    14    31   ar
    24    15    16    1
    25    15    29   ar
    26    17    28   ar
    27    17    35   ar
    28    18    32   ar
    29    18    33   ar
    30    19    22   ar
    31    19    31    1
    32    19    32   ar
    33    20    36   ar
    34    22    34   ar
    35    23    24   ar
    36    23    29    1
    37    29    30   ar
    38    30    31   ar
    39    33    34   ar
    40    35    36   ar
    41    37     1    1
    42    38     3    1
    43    39     4    1
    44    40     5    1
    45    41     6    1
    46    42     6    1
    47    43     9    1
    48    44    10    1
    49    45    11    1
    50    46    16    1
    51    47    16    1
    52    48    17    1
    53    49    18    1
    54    50    20    1
    55    51    21    1
    56    52    22    1
    57    53    28    1
    58    54    32    1
    59    55    33    1
    60    56    34    1
    61    57    35    1
    62    58    36    1
    63    59    12    1
    64    60    12    1
    65    61    12    1
@<TRIPOS>SUBSTRUCTURE
     1 T4B         1 TEMP              0 ****  ****    0 ROOT

