
##########                                Name:               2nnq
##########                DOCK_Rotatable_Bonds:                   8
##########                    Molecular_Weight:             473.551
##########                       Formal_Charge:             -1.0011
##########                            HA_RMSDs:              1.3118
##########                            HA_RMSDh:              0.5948
##########                            HA_RMSDm:              0.5239
##########                          Grid_Score:          -56.996395
##########                     Grid_vdw_energy:          -47.928562
##########                      Grid_es_energy:           -9.067832
##########           Internal_energy_repulsive:           22.061169

@<TRIPOS>MOLECULE
2nnq
 61 65 1 0 0
SMALL
AMBER ff14SB


@<TRIPOS>ATOM
      1 C1          2.4522   10.6021   15.6555 C.ar    1  T4B        -0.1280
      2 C2          6.1521   10.1742   16.7301 C.ar    1  T4B        -0.0310
      3 C3          6.5487    8.8040   16.6170 C.ar    1  T4B        -0.1410
      4 C7          5.0066   11.7628   15.1108 C.ar    1  T4B        -0.1200
      5 C8          3.8376   12.2655   14.4790 C.ar    1  T4B        -0.1330
      6 C9          7.9039    6.2596   15.9976 C.3     1  T4B         0.0044
      7 C10         6.6616    5.3779   16.0822 C.2     1  T4B         0.8876
      8 C11         7.6827    8.3081   17.3497 C.ar    1  T4B         0.1591
      9 C12         8.4191    9.1952   18.1905 C.ar    1  T4B        -0.1760
     10 C13         8.0329   10.5627   18.2993 C.ar    1  T4B        -0.1230
     11 C14         6.9027   11.0529   17.5717 C.ar    1  T4B        -0.1650
     12 C15         3.4317    7.5130   14.5094 C.3     1  T4B        -0.1161
     13 C16         2.6326    5.5808   18.3992 C.ar    1  T4B        -0.0100
     14 C19         3.1218    6.9900   18.1565 C.ar    1  T4B        -0.1973
     15 C20         3.0071    7.7077   16.9937 C.ar    1  T4B        -0.0506
     16 C21         2.4831    7.1553   15.6597 C.3     1  T4B        -0.0141
     17 C22         0.7997    3.9248   18.4661 C.ar    1  T4B        -0.1435
     18 C24         5.9160    7.8519   22.3634 C.ar    1  T4B        -0.1420
     19 C27         4.2615    7.6237   20.5394 C.ar    1  T4B        -0.0935
     20 C30         3.5655    4.5392   18.7406 C.ar    1  T4B        -0.1135
     21 C           2.5634   11.6891   14.7499 C.ar    1  T4B        -0.1380
     22 C4          3.4848    6.7511   21.3640 C.ar    1  T4B        -0.1070
     23 C5          3.6211   10.0815   16.2985 C.ar    1  T4B         0.0348
     24 C6          4.9150   10.6703   16.0276 C.ar    1  T4B         0.0140
     25 O           5.7671    5.6409   16.8833 O.co2   1  T4B        -0.8353
     26 O1          6.5503    4.3185   15.3072 O.co2   1  T4B        -0.8353
     27 O2          8.0825    6.9840   17.2400 O.3     1  T4B        -0.3289
     28 C17         1.2441    5.2594   18.2657 C.ar    1  T4B        -0.1135
     29 N           3.5192    8.9807   17.2086 N.ar    1  T4B         0.1573
     30 N1          3.9801    9.0469   18.5603 N.ar    1  T4B        -0.4918
     31 C18         3.7819    7.9058   19.1548 C.ar    1  T4B         0.3588
     32 C23         5.4840    8.1749   21.0466 C.ar    1  T4B        -0.1070
     33 C25         5.1351    6.9820   23.1772 C.ar    1  T4B        -0.1390
     34 C26         3.9224    6.4302   22.6820 C.ar    1  T4B        -0.1420
     35 C28         1.7314    2.9053   18.8051 C.ar    1  T4B        -0.1420
     36 C29         3.1124    3.2118   18.9434 C.ar    1  T4B        -0.1435
     37 H1          1.4852   10.1670   15.8599 H       1  T4B         0.1390
     38 H3          5.9919    8.1365   15.9760 H       1  T4B         0.1910
     39 H7          5.9673   12.2076   14.8977 H       1  T4B         0.1420
     40 H8          3.9158   13.0913   13.7874 H       1  T4B         0.1250
     41 H92         8.7783    5.6348   15.8151 H       1  T4B         0.0452
     42 H93         7.7889    6.9692   15.1783 H       1  T4B         0.0452
     43 H12         9.2705    8.8297   18.7456 H       1  T4B         0.1330
     44 H13         8.5956   11.2317   18.9334 H       1  T4B         0.1120
     45 H14         6.6155   12.0903   17.6587 H       1  T4B         0.1170
     46 H212        1.5007    7.5823   15.4579 H       1  T4B         0.0472
     47 H213        2.3960    6.0711   15.7294 H       1  T4B         0.0472
     48 H22        -0.2479    3.6843   18.3607 H       1  T4B         0.1255
     49 H24         6.8369    8.2668   22.7462 H       1  T4B         0.1215
     50 H30         4.6156    4.7703   18.8428 H       1  T4B         0.1660
     51 H           1.6808   12.0801   14.2656 H       1  T4B         0.1250
     52 H4          2.5630    6.3337   20.9866 H       1  T4B         0.1475
     53 H17         0.5335    6.0321   18.0124 H       1  T4B         0.1660
     54 H23         6.0764    8.8347   20.4300 H       1  T4B         0.1475
     55 H25         5.4665    6.7402   24.1764 H       1  T4B         0.1170
     56 H26         3.3345    5.7699   23.3024 H       1  T4B         0.1215
     57 H28         1.3879    1.8929   18.9582 H       1  T4B         0.1140
     58 H29         3.8156    2.4341   19.2027 H       1  T4B         0.1255
     59 H151        3.0390    7.1108   13.5755 H       1  T4B         0.0610
     60 H152        4.4153    7.0854   14.7037 H       1  T4B         0.0610
     61 H153        3.5157    8.5970   14.4313 H       1  T4B         0.0610
@<TRIPOS>BOND
     1     1    21   ar
     2     1    23   ar
     3     2     3   ar
     4     2    11   ar
     5     2    24    1
     6     3     8   ar
     7     4     5   ar
     8     4    24   ar
     9     5    21   ar
    10     6     7    1
    11     6    27    1
    12     7    25    2
    13     7    26    2
    14     8     9   ar
    15     8    27    1
    16     9    10   ar
    17    10    11   ar
    18    12    16    1
    19    13    14    1
    20    13    20   ar
    21    13    28   ar
    22    14    15   ar
    23    14    31   ar
    24    15    16    1
    25    15    29   ar
    26    17    28   ar
    27    17    35   ar
    28    18    32   ar
    29    18    33   ar
    30    19    22   ar
    31    19    31    1
    32    19    32   ar
    33    20    36   ar
    34    22    34   ar
    35    23    24   ar
    36    23    29    1
    37    29    30   ar
    38    30    31   ar
    39    33    34   ar
    40    35    36   ar
    41    37     1    1
    42    38     3    1
    43    39     4    1
    44    40     5    1
    45    41     6    1
    46    42     6    1
    47    43     9    1
    48    44    10    1
    49    45    11    1
    50    46    16    1
    51    47    16    1
    52    48    17    1
    53    49    18    1
    54    50    20    1
    55    51    21    1
    56    52    22    1
    57    53    28    1
    58    54    32    1
    59    55    33    1
    60    56    34    1
    61    57    35    1
    62    58    36    1
    63    59    12    1
    64    60    12    1
    65    61    12    1
@<TRIPOS>SUBSTRUCTURE
     1 T4B         1 TEMP              0 ****  ****    0 ROOT

